* PSpice Model Editor - Version 9.2

*$
.model BC548C   NPN(Is=7.049f Xti=3 Eg=1.11 Vaf=24.76 Bf=543.1 Ise=78.17f
+               Ne=1.679 Ikf=94.96m Nk=.5381 Xtb=1.5 Br=1 Isc=27.51f Nc=1.775
+               Ikr=3.321 Rc=.9706 Cjc=5.25p Mjc=.3147 Vjc=.5697 Fc=.5
+               Cje=11.5p Mje=.6715 Vje=.5 Tr=10n Tf=410.7p Itf=1.12 Xtf=26.19
+               Vtf=10)
*$
.model BC548B   NPN(Is=7.049f Xti=3 Eg=1.11 Vaf=62.79 Bf=374.6 Ise=68f Ne=1.576
+               Ikf=81.57m Nk=.4767 Xtb=1.5 Br=1 Isc=12.4f Nc=1.835 Ikr=3.924
+               Rc=.9747 Cjc=5.25p Mjc=.3147 Vjc=.5697 Fc=.5 Cje=11.5p
+               Mje=.6715 Vje=.5 Tr=10n Tf=410.2p Itf=1.491 Xtf=40.06 Vtf=10)
*$
.model BC548A   NPN(Is=7.049f Xti=3 Eg=1.11 Vaf=127.9 Bf=253 Ise=96.26f
+               Ne=1.556 Ikf=77.05m Nk=.5305 Xtb=1.5 Br=1 Isc=130.8f Nc=1.602
+               Ikr=3.321 Rc=.8766 Cjc=5.25p Mjc=.3147 Vjc=.5697 Fc=.5
+               Cje=11.5p Mje=.6715 Vje=.5 Tr=10n Tf=409.5p Itf=1.994 Xtf=40.12
+               Vtf=10)
*$
.MODEL BC557C PNP( 
+     IS=5.826E-14
+     NF=1.009
+     ISE=3.884E-15
+     NE=1.408
+     BF=516.7
+     IKF=0.08039
+     VAF=26.03
+     NR=1.006
+     ISC=4.014E-14
+     NC=1.313
+     BR=12.45
+     IKR=0.07238
+     VAR=6.717
+     RB=1
+     IRB=1E-06
+     RBM=1
+     RE=0.5685
+     RC=0.6257
+     XTB=0
+     EG=1.11
+     XTI=3
+     CJE=1.26E-11
+     VJE=0.3809
+     MJE=0.3545
+     TF=5.233E-10
+     XTF=4.339
+     VTF=5.425
+     ITF=0.1896
+     PTF=0
+     CJC=7.798E-12
+     VJC=0.5897
+     MJC=0.4569
+     XCJC=0.6288
+     TR=1E-32
+     CJS=0
+     VJS=0.75
+     MJS=0.333
+     FC=0.5729 )
*$
.MODEL BC557B PNP( 
+     IS=3.834E-14
+     NF=1.008
+     ISE=1.219E-14
+     NE=1.528
+     BF=344.4
+     IKF=0.08039
+     VAF=21.11
+     NR=1.005
+     ISC=2.852E-13
+     NC=1.28
+     BR=14.84
+     IKR=0.047
+     VAR=32.02
+     RB=1
+     IRB=1E-06
+     RBM=1
+     RE=0.6202
+     RC=0.5713
+     XTB=0
+     EG=1.11
+     XTI=3
+     CJE=1.23E-11
+     VJE=0.6106
+     MJE=0.378
+     TF=5.595E-10
+     XTF=3.414
+     VTF=5.23
+     ITF=0.1483
+     PTF=0
+     CJC=1.084E-11
+     VJC=0.1022
+     MJC=0.3563
+     XCJC=0.6288
+     TR=1E-32
+     CJS=0
+     VJS=0.75
+     MJS=0.333
+     FC=0.8027 )
*$
.MODEL BC556B PNP( 
+     IS=3.834E-14
+     NF=1.008
+     ISE=1.219E-14
+     NE=1.528
+     BF=344.4
+     IKF=0.08039
+     VAF=21.11
+     NR=1.005
+     ISC=2.852E-13
+     NC=1.28
+     BR=14.84
+     IKR=0.047
+     VAR=32.02
+     RB=1
+     IRB=1E-06
+     RBM=1
+     RE=0.6202
+     RC=0.5713
+     XTB=0
+     EG=1.11
+     XTI=3
+     CJE=1.23E-11
+     VJE=0.6106
+     MJE=0.378
+     TF=5.595E-10
+     XTF=3.414
+     VTF=5.23
+     ITF=0.1483
+     PTF=0
+     CJC=1.084E-11
+     VJC=0.1022
+     MJC=0.3563
+     XCJC=0.6288
+     TR=1E-32
+     CJS=0
+     VJS=0.75
+     MJS=0.333
+     FC=0.8027 )
*$
.MODEL BC556A PNP( 
+     IS=2.059E-14
+     NF=1.003
+     ISE=2.971E-15
+     NE=1.316
+     BF=227.3
+     IKF=0.08719
+     VAF=37.2
+     NR=1.007
+     ISC=1.339E-14
+     NC=1.15
+     BR=7.69
+     IKR=0.07646
+     VAR=11.42
+     RB=1
+     IRB=1E-06
+     RBM=1
+     RE=0.688
+     RC=0.6437
+     XTB=0
+     EG=1.11
+     XTI=3
+     CJE=1.4E-11
+     VJE=0.5912
+     MJE=0.3572
+     TF=7.046E-10
+     XTF=4.217
+     VTF=5.367
+     ITF=0.1947
+     PTF=0
+     CJC=1.113E-11
+     VJC=0.1
+     MJC=0.3414
+     XCJC=0.6288
+     TR=1E-32
+     CJS=0
+     VJS=0.75
+     MJS=0.333
+     FC=0.7947 )
*$
.MODEL BC547C NPN( 
+     IS=4.679E-14
+     NF=1.01
+     ISE=2.642E-15
+     NE=1.581
+     BF=458.7
+     IKF=0.1371
+     VAF=52.64
+     NR=1.019
+     ISC=2.337E-14
+     NC=1.164
+     BR=11.57
+     IKR=0.1144
+     VAR=364.5
+     RB=1
+     IRB=1E-06
+     RBM=1
+     RE=0.2598
+     RC=1
+     XTB=0
+     EG=1.11
+     XTI=3
+     CJE=1.229E-11
+     VJE=0.5591
+     MJE=0.3385
+     TF=4.689E-10
+     XTF=160
+     VTF=2.828
+     ITF=0.8842
+     PTF=0
+     CJC=4.42E-12
+     VJC=0.1994
+     MJC=0.2782
+     XCJC=0.6193
+     TR=1E-32
+     CJS=0
+     VJS=0.75
+     MJS=0.333
+     FC=0.7936 )
*$
.MODEL BC547B NPN( 
+     IS=2.39E-14
+     NF=1.008
+     ISE=3.545E-15
+     NE=1.541
+     BF=294.3
+     IKF=0.1357
+     VAF=63.2
+     NR=1.004
+     ISC=6.272E-14
+     NC=1.243
+     BR=7.946
+     IKR=0.1144
+     VAR=25.9
+     RB=1
+     IRB=1E-06
+     RBM=1
+     RE=0.4683
+     RC=0.85
+     XTB=0
+     EG=1.11
+     XTI=3
+     CJE=1.358E-11
+     VJE=0.65
+     MJE=0.3279
+     TF=4.391E-10
+     XTF=120
+     VTF=2.643
+     ITF=0.7495
+     PTF=0
+     CJC=3.728E-12
+     VJC=0.3997
+     MJC=0.2955
+     XCJC=0.6193
+     TR=1E-32
+     CJS=0
+     VJS=0.75
+     MJS=0.333
+     FC=0.9579 )
*$
.MODEL BC546B NPN( 
+     IS=2.39E-14
+     NF=1.008
+     ISE=3.545E-15
+     NE=1.541
+     BF=294.3
+     IKF=0.1357
+     VAF=63.2
+     NR=1.004
+     ISC=6.272E-14
+     NC=1.243
+     BR=7.946
+     IKR=0.1144
+     VAR=25.9
+     RB=1
+     IRB=1E-06
+     RBM=1
+     RE=0.4683
+     RC=0.85
+     XTB=0
+     EG=1.11
+     XTI=3
+     CJE=1.358E-11
+     VJE=0.65
+     MJE=0.3279
+     TF=4.391E-10
+     XTF=120
+     VTF=2.643
+     ITF=0.7495
+     PTF=0
+     CJC=3.728E-12
+     VJC=0.3997
+     MJC=0.2955
+     XCJC=0.6193
+     TR=1E-32
+     CJS=0
+     VJS=0.75
+     MJS=0.333
+     FC=0.9579 )
*$
.MODEL BC546A NPN( 
+     IS=1.533E-14
+     NF=1.002
+     ISE=7.932E-16
+     NE=1.436
+     BF=178.7
+     IKF=0.1216
+     VAF=69.7
+     NR=1.004
+     ISC=8.305E-14
+     NC=1.207
+     BR=8.628
+     IKR=0.1121
+     VAR=44.7
+     RB=1
+     IRB=1E-06
+     RBM=1
+     RE=0.6395
+     RC=0.6508
+     XTB=0
+     EG=1.11
+     XTI=3
+     CJE=1.61E-11
+     VJE=0.4209
+     MJE=0.3071
+     TF=4.995E-10
+     XTF=139
+     VTF=3.523
+     ITF=0.7021
+     PTF=0
+     CJC=4.388E-12
+     VJC=0.2
+     MJC=0.2793
+     XCJC=0.6193
+     TR=1E-32
+     CJS=0
+     VJS=0.75
+     MJS=0.333
+     FC=0.7762 )
*$
