**************************************
*      Model Generated by MODPEX     *
*Copyright(c) Symmetry Design Systems*
*         All Rights Reserved        *
*    UNPUBLISHED LICENSED SOFTWARE   *
*   Contains Proprietary Information *
*      Which is The Property of      *
*     SYMMETRY OR ITS LICENSORS      *
*    Modeling services provided by   *
* Interface Technologies www.i-t.com *
**************************************
.MODEL Qtip29 npn
+IS=1e-09 BF=331.58 NF=0.85 VAF=52.0929
+IKF=0.286747 ISE=1.27813e-09 NE=1.29493 BR=1.03668
+NR=0.75 VAR=91.9558 IKR=1.91753 ISC=1.27813e-09
+NC=3.05613 RB=43.0821 IRB=0.1 RBM=0.122668
+RE=0.000563203 RC=0.34452 XTB=0.720859 XTI=1.14559
+EG=1.05 CJE=7.7589e-08 VJE=0.550883 MJE=0.500345
+TF=1e-08 XTF=1.35725 VTF=0.996005 ITF=0.999927
+CJC=4.44553e-10 VJC=0.400343 MJC=0.409703 XCJC=0.803124
+FC=0.568788 CJS=0 VJS=0.75 MJS=0.5
+TR=1e-07 PTF=0 KF=0 AF=1
* Model generated on Mar  7, 2004
* Model format: PSpice
