**************************************
*      Model Generated by MODPEX     *
*Copyright(c) Symmetry Design Systems*
*         All Rights Reserved        *
*    UNPUBLISHED LICENSED SOFTWARE   *
*   Contains Proprietary Information *
*      Which is The Property of      *
*     SYMMETRY OR ITS LICENSORS      *
*    Modeling services provided by   *
* Interface Technologies www.i-t.com *
**************************************
.MODEL Qtip30 pnp
+IS=1e-09 BF=192.893 NF=0.85 VAF=49.329
+IKF=0.519667 ISE=1e-08 NE=1.90927 BR=1.14712
+NR=1.5 VAR=58.8376 IKR=5.19667 ISC=1e-08
+NC=3.07207 RB=45.4356 IRB=0.1 RBM=0.115769
+RE=0.000526622 RC=0.718902 XTB=0.771093 XTI=1.16111
+EG=1.05 CJE=8.27904e-08 VJE=0.538348 MJE=0.517133
+TF=1e-08 XTF=1.35724 VTF=0.995977 ITF=0.999928
+CJC=4.44657e-10 VJC=0.400388 MJC=0.409559 XCJC=0.803124
+FC=0.571623 CJS=0 VJS=0.75 MJS=0.5
+TR=1e-07 PTF=0 KF=0 AF=1
* Model generated on Mar  7, 2004
* Model format: PSpice
